<?xml version="1.0" encoding="UTF-8"?>

<!-- generated on Fri Jun  1 01:08:07 2018 by Eclipse SUMO netconvert Version 22c4320
<configuration xmlns:xsi="http://www.w3.org/2001/XMLSchema-instance" xsi:noNamespaceSchemaLocation="http://sumo.dlr.de/xsd/netconvertConfiguration.xsd">

    <input>
        <osm-files value="map.osm"/>
    </input>

    <output>
        <output-file value="map.net.xml"/>
    </output>

    <projection>
        <proj.utm value="true"/>
    </projection>

    <tls_building>
        <tls.discard-simple value="true"/>
        <tls.join value="true"/>
        <tls.guess-signals value="true"/>
    </tls_building>

    <ramp_guessing>
        <ramps.guess value="true"/>
    </ramp_guessing>

    <processing>
        <geometry.remove value="true"/>
        <roundabouts.guess value="true"/>
        <junctions.join value="true"/>
    </processing>

</configuration>
-->

<net version="0.27" xmlns:xsi="http://www.w3.org/2001/XMLSchema-instance" xsi:noNamespaceSchemaLocation="http://sumo.dlr.de/xsd/net_file.xsd">

    <location netOffset="-373097.96,-2045107.27" convBoundary="0.00,0.00,6740.25,15631.39" origBoundary="73.763497,18.442887,73.861550,18.633850" projParameter="+proj=utm +zone=43 +ellps=WGS84 +datum=WGS84 +units=m +no_defs"/>

    <type id="highway.bridleway" priority="1" numLanes="1" speed="2.78" allow="pedestrian" oneway="1" width="2.00"/>
    <type id="highway.bus_guideway" priority="1" numLanes="1" speed="27.78" allow="bus" oneway="1"/>
    <type id="highway.cycleway" priority="1" numLanes="1" speed="8.33" allow="bicycle" oneway="0" width="1.00"/>
    <type id="highway.footway" priority="1" numLanes="1" speed="2.78" allow="pedestrian" oneway="1" width="2.00"/>
    <type id="highway.ford" priority="1" numLanes="1" speed="2.78" allow="army" oneway="0"/>
    <type id="highway.living_street" priority="3" numLanes="1" speed="2.78" disallow="tram rail_urban rail rail_electric ship" oneway="0"/>
    <type id="highway.motorway" priority="13" numLanes="2" speed="44.44" allow="private emergency authority army vip passenger hov taxi bus coach delivery truck trailer motorcycle evehicle custom1 custom2" oneway="1"/>
    <type id="highway.motorway_link" priority="12" numLanes="1" speed="22.22" allow="private emergency authority army vip passenger hov taxi bus coach delivery truck trailer motorcycle evehicle custom1 custom2" oneway="1"/>
    <type id="highway.path" priority="1" numLanes="1" speed="2.78" allow="bicycle pedestrian" oneway="1" width="2.00"/>
    <type id="highway.pedestrian" priority="1" numLanes="1" speed="2.78" allow="pedestrian" oneway="1" width="2.00"/>
    <type id="highway.primary" priority="9" numLanes="2" speed="27.78" disallow="tram rail_urban rail rail_electric ship" oneway="0"/>
    <type id="highway.primary_link" priority="8" numLanes="1" speed="22.22" disallow="tram rail_urban rail rail_electric ship" oneway="0"/>
    <type id="highway.raceway" priority="14" numLanes="2" speed="83.33" allow="vip" oneway="0"/>
    <type id="highway.residential" priority="4" numLanes="1" speed="13.89" disallow="tram rail_urban rail rail_electric ship" oneway="0"/>
    <type id="highway.secondary" priority="7" numLanes="2" speed="27.78" disallow="tram rail_urban rail rail_electric ship" oneway="0"/>
    <type id="highway.secondary_link" priority="6" numLanes="1" speed="22.22" disallow="tram rail_urban rail rail_electric ship" oneway="0"/>
    <type id="highway.service" priority="2" numLanes="1" speed="5.56" allow="delivery bicycle pedestrian" oneway="0"/>
    <type id="highway.services" priority="1" numLanes="1" speed="8.33" disallow="tram rail_urban rail rail_electric ship" oneway="0"/>
    <type id="highway.stairs" priority="1" numLanes="1" speed="1.39" allow="pedestrian" oneway="1" width="2.00"/>
    <type id="highway.step" priority="1" numLanes="1" speed="1.39" allow="pedestrian" oneway="1" width="2.00"/>
    <type id="highway.steps" priority="1" numLanes="1" speed="1.39" allow="pedestrian" oneway="1" width="2.00"/>
    <type id="highway.tertiary" priority="6" numLanes="1" speed="22.22" disallow="tram rail_urban rail rail_electric ship" oneway="0"/>
    <type id="highway.tertiary_link" priority="5" numLanes="1" speed="22.22" disallow="tram rail_urban rail rail_electric ship" oneway="0"/>
    <type id="highway.track" priority="1" numLanes="1" speed="5.56" disallow="tram rail_urban rail rail_electric ship" oneway="0"/>
    <type id="highway.trunk" priority="11" numLanes="2" speed="27.78" disallow="tram rail_urban rail rail_electric bicycle pedestrian ship" oneway="0"/>
    <type id="highway.trunk_link" priority="10" numLanes="1" speed="22.22" disallow="tram rail_urban rail rail_electric bicycle pedestrian ship" oneway="0"/>
    <type id="highway.unclassified" priority="5" numLanes="1" speed="13.89" disallow="tram rail_urban rail rail_electric ship" oneway="0"/>
    <type id="highway.unsurfaced" priority="1" numLanes="1" speed="8.33" disallow="tram rail_urban rail rail_electric ship" oneway="0"/>
    <type id="railway.light_rail" priority="15" numLanes="1" speed="27.78" allow="rail_urban" oneway="1"/>
    <type id="railway.preserved" priority="15" numLanes="1" speed="27.78" allow="rail" oneway="1"/>
    <type id="railway.rail" priority="15" numLanes="1" speed="83.33" allow="rail rail_electric" oneway="1"/>
    <type id="railway.subway" priority="15" numLanes="1" speed="27.78" allow="rail_urban" oneway="1"/>
    <type id="railway.tram" priority="15" numLanes="1" speed="13.89" allow="tram" oneway="1"/>

    <edge id=":1223953741_0" function="internal">
        <lane id=":1223953741_0_0" index="0" disallow="tram rail_urban rail rail_electric ship" speed="27.78" length="9.44" shape="4886.39,4142.92 4890.69,4151.33"/>
        <lane id=":1223953741_0_1" index="1" disallow="tram rail_urban rail rail_electric ship" speed="27.78" length="9.44" shape="4883.54,4144.38 4887.84,4152.79"/>
    </edge>
    <edge id=":1223953741_2" function="internal">
        <lane id=":1223953741_2_0" index="0" disallow="tram rail_urban rail rail_electric ship" speed="20.84" length="8.14" shape="4883.54,4144.38 4884.62,4147.01 4884.88,4149.07 4884.34,4150.55 4882.98,4151.46"/>
    </edge>
    <edge id=":1223953741_3" function="internal">
        <lane id=":1223953741_3_0" index="0" disallow="tram rail_urban rail rail_electric ship" speed="20.84" length="8.01" shape="4881.91,4148.45 4883.45,4148.30 4884.96,4148.98 4886.42,4150.48 4887.84,4152.79"/>
    </edge>
    <edge id=":1223953741_4" function="internal">
        <lane id=":1223953741_4_0" index="0" disallow="tram rail_urban rail rail_electric ship" speed="13.89" length="4.67" shape="4881.91,4148.45 4883.31,4148.80 4883.95,4149.42 4883.84,4150.31 4882.98,4151.46"/>
    </edge>
    <edge id=":1223954417_0" function="internal">
        <lane id=":1223954417_0_0" index="0" disallow="tram rail_urban rail rail_electric ship" speed="22.22" length="5.95" shape="4071.12,4096.68 4070.81,4098.65 4071.14,4099.58 4072.11,4099.45 4073.72,4098.28"/>
    </edge>
    <edge id=":1223954688_0" function="internal">
        <lane id=":1223954688_0_0" index="0" disallow="tram rail_urban rail rail_electric ship" speed="22.22" length="10.46" shape="4660.94,3775.24 4657.93,3775.72 4655.76,3775.93 4653.57,3775.95 4650.52,3775.85"/>
    </edge>
    <edge id=":1223954688_1" function="internal">
        <lane id=":1223954688_1_0" index="0" disallow="tram rail_urban rail rail_electric ship" speed="18.05" length="5.13" shape="4660.94,3775.24 4658.17,3775.26 4656.01,3774.29"/>
    </edge>
    <edge id=":1223954688_2" function="internal">
        <lane id=":1223954688_2_0" index="0" disallow="tram rail_urban rail rail_electric ship" speed="22.22" length="2.34" shape="4660.94,3775.24 4659.62,3774.65 4659.09,3773.93"/>
    </edge>
    <edge id=":1223954688_12" function="internal">
        <lane id=":1223954688_12_0" index="0" speed="18.05" length="5.65" shape="4656.01,3774.29 4654.45,3772.31 4653.49,3769.33"/>
    </edge>
    <edge id=":1223954688_13" function="internal">
        <lane id=":1223954688_13_0" index="0" speed="22.22" length="2.34" shape="4659.09,3773.93 4659.35,3773.08 4660.39,3772.09"/>
    </edge>
    <edge id=":1223954688_3" function="internal">
        <lane id=":1223954688_3_0" index="0" disallow="tram rail_urban rail rail_electric ship" speed="18.05" length="5.70" shape="4656.63,3768.73 4657.14,3770.39 4657.94,3771.51 4659.02,3772.07 4660.39,3772.09"/>
    </edge>
    <edge id=":1223954688_4" function="internal">
        <lane id=":1223954688_4_0" index="0" disallow="tram rail_urban rail rail_electric ship" speed="18.05" length="11.35" shape="4656.63,3768.73 4656.78,3771.95 4655.81,3774.20 4653.72,3775.50 4650.52,3775.85"/>
    </edge>
    <edge id=":1223954688_5" function="internal">
        <lane id=":1223954688_5_0" index="0" disallow="tram rail_urban rail rail_electric ship" speed="13.89" length="4.67" shape="4656.63,3768.73 4656.07,3770.06 4655.36,3770.60 4654.50,3770.36 4653.49,3769.33"/>
    </edge>
    <edge id=":1223954688_6" function="internal">
        <lane id=":1223954688_6_0" index="0" disallow="tram rail_urban rail rail_electric ship" speed="18.05" length="5.29" shape="4650.64,3772.65 4652.13,3772.49 4653.10,3771.88 4653.55,3770.83 4653.49,3769.33"/>
    </edge>
    <edge id=":1223954688_7" function="internal">
        <lane id=":1223954688_7_0" index="0" disallow="tram rail_urban rail rail_electric ship" speed="22.22" length="9.80" shape="4650.64,3772.65 4653.55,3772.75 4655.54,3772.74 4657.53,3772.55 4660.39,3772.09"/>
    </edge>
    <edge id=":1223954688_8" function="internal">
        <lane id=":1223954688_8_0" index="0" disallow="tram rail_urban rail rail_electric ship" speed="22.22" length="2.34" shape="4650.64,3772.65 4651.81,3773.49 4652.18,3774.31"/>
    </edge>
    <edge id=":1223954688_14" function="internal">
        <lane id=":1223954688_14_0" index="0" speed="22.22" length="2.34" shape="4652.18,3774.31 4651.75,3775.09 4650.52,3775.85"/>
    </edge>
    <edge id=":1223954688_9" function="internal">
        <lane id=":1223954688_9_0" index="0" disallow="tram rail_urban rail rail_electric ship" speed="22.22" length="7.03" shape="4655.87,3779.16 4655.59,3777.78 4654.61,3776.77 4652.92,3776.13 4650.52,3775.85"/>
    </edge>
    <edge id=":1223954688_10" function="internal">
        <lane id=":1223954688_10_0" index="0" disallow="tram rail_urban rail rail_electric ship" speed="18.05" length="10.20" shape="4655.87,3779.16 4655.73,3776.21 4655.12,3774.21 4654.29,3772.24 4653.49,3769.33"/>
    </edge>
    <edge id=":1223954688_11" function="internal">
        <lane id=":1223954688_11_0" index="0" disallow="tram rail_urban rail rail_electric ship" speed="22.22" length="9.12" shape="4655.87,3779.16 4656.27,3776.34 4657.15,3774.22 4658.53,3772.80 4660.39,3772.09"/>
    </edge>
    <edge id=":1223954741_0" function="internal">
        <lane id=":1223954741_0_0" index="0" disallow="tram rail_urban rail rail_electric ship" speed="27.78" length="12.36" shape="4771.43,3909.49 4772.79,3912.95 4773.62,3915.58 4774.98,3917.63 4777.94,3919.36"/>
    </edge>
    <edge id=":1223954741_1" function="internal">
        <lane id=":1223954741_1_0" index="0" disallow="tram rail_urban rail rail_electric ship" speed="27.78" length="14.74" shape="4771.43,3909.49 4772.93,3913.63 4772.99,3916.72 4772.52,3919.97 4772.46,3924.54"/>
        <lane id=":1223954741_1_1" index="1" disallow="tram rail_urban rail rail_electric ship" speed="27.78" length="14.74" shape="4768.57,3910.93 4769.92,3914.74 4769.88,3917.59 4769.37,3920.58 4769.27,3924.79"/>
    </edge>
    <edge id=":1223954741_3" function="internal">
        <lane id=":1223954741_3_0" index="0" disallow="tram rail_urban rail rail_electric ship" speed="25.00" length="8.84" shape="4762.85,3913.80 4763.95,3916.63 4764.05,3918.75 4763.14,3920.14 4761.23,3920.82"/>
    </edge>
    <edge id=":1223954741_4" function="internal">
        <lane id=":1223954741_4_0" index="0" disallow="tram rail_urban rail rail_electric ship" speed="25.00" length="16.80" shape="4760.81,3917.64 4764.31,3917.66 4767.75,3918.57 4771.70,3920.19 4776.74,3922.33"/>
    </edge>
    <edge id=":1223954741_5" function="internal">
        <lane id=":1223954741_5_0" index="0" disallow="tram rail_urban rail rail_electric ship" speed="25.00" length="12.78" shape="4760.81,3917.64 4764.27,3917.71 4766.83,3918.92 4768.50,3921.28 4769.27,3924.79"/>
    </edge>
    <edge id=":1223954741_6" function="internal">
        <lane id=":1223954741_6_0" index="0" disallow="tram rail_urban rail rail_electric ship" speed="22.22" length="4.67" shape="4760.81,3917.64 4762.11,3918.28 4762.61,3919.02 4762.32,3919.87 4761.23,3920.82"/>
    </edge>
    <edge id=":1223954815_0" function="internal">
        <lane id=":1223954815_0_0" index="0" disallow="tram rail_urban rail rail_electric ship" speed="22.22" length="9.40" shape="4424.17,4166.42 4415.08,4164.02"/>
    </edge>
    <edge id=":1223954815_1" function="internal">
        <lane id=":1223954815_1_0" index="0" disallow="tram rail_urban rail rail_electric ship" speed="18.05" length="4.89" shape="4424.17,4166.42 4421.79,4165.36 4420.23,4163.69"/>
    </edge>
    <edge id=":1223954815_2" function="internal">
        <lane id=":1223954815_2_0" index="0" disallow="tram rail_urban rail rail_electric ship" speed="22.22" length="2.34" shape="4424.17,4166.42 4423.22,4165.33 4423.04,4164.45"/>
    </edge>
    <edge id=":1223954815_9" function="internal">
        <lane id=":1223954815_9_0" index="0" speed="18.05" length="5.32" shape="4420.23,4163.69 4419.48,4161.40 4419.53,4158.49"/>
    </edge>
    <edge id=":1223954815_10" function="internal">
        <lane id=":1223954815_10_0" index="0" speed="22.22" length="2.34" shape="4423.04,4164.45 4423.63,4163.79 4425.00,4163.32"/>
    </edge>
    <edge id=":1223954815_3" function="internal">
        <lane id=":1223954815_3_0" index="0" disallow="tram rail_urban rail rail_electric ship" speed="18.05" length="5.49" shape="4422.70,4158.94 4422.65,4160.57 4423.01,4161.85 4423.80,4162.77 4425.00,4163.32"/>
    </edge>
    <edge id=":1223954815_4" function="internal">
        <lane id=":1223954815_4_0" index="0" disallow="tram rail_urban rail rail_electric ship" speed="18.05" length="10.74" shape="4422.70,4158.94 4421.86,4161.81 4420.31,4163.61 4418.05,4164.35 4415.08,4164.02"/>
    </edge>
    <edge id=":1223954815_5" function="internal">
        <lane id=":1223954815_5_0" index="0" disallow="tram rail_urban rail rail_electric ship" speed="13.89" length="4.67" shape="4422.70,4158.94 4421.74,4160.01 4420.89,4160.30 4420.15,4159.79 4419.53,4158.49"/>
    </edge>
    <edge id=":1223954815_6" function="internal">
        <lane id=":1223954815_6_0" index="0" disallow="tram rail_urban rail rail_electric ship" speed="18.05" length="5.14" shape="4415.88,4160.92 4417.30,4161.08 4418.38,4160.72 4419.13,4159.86 4419.53,4158.49"/>
    </edge>
    <edge id=":1223954815_7" function="internal">
        <lane id=":1223954815_7_0" index="0" disallow="tram rail_urban rail rail_electric ship" speed="22.22" length="9.43" shape="4415.88,4160.92 4425.00,4163.32"/>
    </edge>
    <edge id=":1223954815_8" function="internal">
        <lane id=":1223954815_8_0" index="0" disallow="tram rail_urban rail rail_electric ship" speed="22.22" length="2.34" shape="4415.88,4160.92 4416.84,4161.99 4417.03,4162.87"/>
    </edge>
    <edge id=":1223954815_11" function="internal">
        <lane id=":1223954815_11_0" index="0" speed="22.22" length="2.34" shape="4417.03,4162.87 4416.44,4163.54 4415.08,4164.02"/>
    </edge>
    <edge id=":1223955153_0" function="internal">
        <lane id=":1223955153_0_0" index="0" disallow="tram rail_urban rail rail_electric ship" speed="18.05" length="8.55" shape="4452.05,3968.06 4451.07,3968.93 4450.23,3970.51 4449.53,3972.80 4448.98,3975.80"/>
    </edge>
    <edge id=":1223955153_1" function="internal">
        <lane id=":1223955153_1_0" index="0" disallow="tram rail_urban rail rail_electric ship" speed="22.22" length="10.80" shape="4452.05,3968.06 4442.38,3972.87"/>
    </edge>
    <edge id=":1223955153_2" function="internal">
        <lane id=":1223955153_2_0" index="0" disallow="tram rail_urban rail rail_electric ship" speed="22.22" length="2.34" shape="4452.05,3968.06 4450.62,3967.87 4449.91,3967.33"/>
    </edge>
    <edge id=":1223955153_9" function="internal">
        <lane id=":1223955153_9_0" index="0" speed="22.22" length="2.34" shape="4449.91,3967.33 4449.91,3966.44 4450.64,3965.19"/>
    </edge>
    <edge id=":1223955153_3" function="internal">
        <lane id=":1223955153_3_0" index="0" disallow="tram rail_urban rail rail_electric ship" speed="22.22" length="10.82" shape="4440.95,3970.01 4450.64,3965.19"/>
    </edge>
    <edge id=":1223955153_4" function="internal">
        <lane id=":1223955153_4_0" index="0" disallow="tram rail_urban rail rail_electric ship" speed="18.05" length="6.10" shape="4440.95,3970.01 4445.04,3968.58 4446.78,3968.90"/>
    </edge>
    <edge id=":1223955153_5" function="internal">
        <lane id=":1223955153_5_0" index="0" disallow="tram rail_urban rail rail_electric ship" speed="22.22" length="2.34" shape="4440.95,3970.01 4442.38,3970.19 4443.10,3970.73"/>
    </edge>
    <edge id=":1223955153_10" function="internal">
        <lane id=":1223955153_10_0" index="0" speed="18.05" length="8.04" shape="4446.78,3968.90 4447.74,3969.07 4449.05,3971.48 4448.98,3975.80"/>
    </edge>
    <edge id=":1223955153_11" function="internal">
        <lane id=":1223955153_11_0" index="0" speed="22.22" length="2.34" shape="4443.10,3970.73 4443.10,3971.62 4442.38,3972.87"/>
    </edge>
    <edge id=":1223955153_6" function="internal">
        <lane id=":1223955153_6_0" index="0" disallow="tram rail_urban rail rail_electric ship" speed="18.05" length="6.04" shape="4445.81,3975.35 4445.84,3973.50 4445.28,3972.47 4444.13,3972.26 4442.38,3972.87"/>
    </edge>
    <edge id=":1223955153_7" function="internal">
        <lane id=":1223955153_7_0" index="0" disallow="tram rail_urban rail rail_electric ship" speed="18.05" length="11.62" shape="4445.81,3975.35 4446.57,3971.57 4447.62,3968.62 4448.98,3966.49 4450.64,3965.19"/>
    </edge>
    <edge id=":1223955153_8" function="internal">
        <lane id=":1223955153_8_0" index="0" disallow="tram rail_urban rail rail_electric ship" speed="13.89" length="4.67" shape="4445.81,3975.35 4446.77,3974.27 4447.62,3973.99 4448.36,3974.50 4448.98,3975.80"/>
    </edge>
    <edge id=":1223955197_0" function="internal">
        <lane id=":1223955197_0_0" index="0" disallow="tram rail_urban rail rail_electric ship" speed="19.45" length="5.28" shape="4701.89,3767.30 4700.53,3767.90 4699.78,3768.77 4699.66,3769.91 4700.17,3771.31"/>
    </edge>
    <edge id=":1223955197_1" function="internal">
        <lane id=":1223955197_1_0" index="0" disallow="tram rail_urban rail rail_electric ship" speed="16.67" length="18.04" shape="4701.89,3767.30 4697.81,3768.36 4693.14,3769.45 4688.45,3770.44 4684.30,3771.23"/>
    </edge>
    <edge id=":1223955197_2" function="internal">
        <lane id=":1223955197_2_0" index="0" disallow="tram rail_urban rail rail_electric ship" speed="11.11" length="2.34" shape="4701.89,3767.30 4700.52,3766.85 4699.92,3766.18"/>
    </edge>
    <edge id=":1223955197_12" function="internal">
        <lane id=":1223955197_12_0" index="0" speed="11.11" length="2.34" shape="4699.92,3766.18 4700.09,3765.31 4701.04,3764.21"/>
    </edge>
    <edge id=":1223955197_3" function="internal">
        <lane id=":1223955197_3_0" index="0" disallow="tram rail_urban rail rail_electric ship" speed="19.45" length="8.71" shape="4694.32,3759.91 4695.75,3762.21 4697.35,3763.70 4699.11,3764.36 4701.04,3764.21"/>
    </edge>
    <edge id=":1223955197_4" function="internal">
        <lane id=":1223955197_4_0" index="0" disallow="tram rail_urban rail rail_electric ship" speed="27.78" length="12.93" shape="4694.32,3759.91 4700.17,3771.31"/>
        <lane id=":1223955197_4_1" index="1" disallow="tram rail_urban rail rail_electric ship" speed="27.78" length="12.93" shape="4691.46,3761.33 4697.34,3772.81"/>
        <lane id=":1223955197_4_2" index="2" disallow="tram rail_urban rail rail_electric ship" speed="27.78" length="12.93" shape="4688.59,3762.76 4694.51,3774.30"/>
        <lane id=":1223955197_4_3" index="3" disallow="tram rail_urban rail rail_electric ship" speed="27.78" length="12.93" shape="4685.73,3764.19 4691.68,3775.80"/>
    </edge>
    <edge id=":1223955197_8" function="internal">
        <lane id=":1223955197_8_0" index="0" disallow="tram rail_urban rail rail_electric ship" speed="25.00" length="8.68" shape="4685.73,3764.19 4686.81,3766.97 4686.93,3769.08 4686.09,3770.49 4684.30,3771.23"/>
    </edge>
    <edge id=":1223955197_9" function="internal">
        <lane id=":1223955197_9_0" index="0" disallow="tram rail_urban rail rail_electric ship" speed="16.67" length="17.71" shape="4683.76,3768.07 4687.86,3767.30 4692.44,3766.33 4697.00,3765.26 4701.04,3764.21"/>
    </edge>
    <edge id=":1223955197_10" function="internal">
        <lane id=":1223955197_10_0" index="0" disallow="tram rail_urban rail rail_electric ship" speed="25.00" length="3.24" shape="4683.76,3768.07 4685.57,3768.33 4686.71,3769.14"/>
    </edge>
    <edge id=":1223955197_11" function="internal">
        <lane id=":1223955197_11_0" index="0" disallow="tram rail_urban rail rail_electric ship" speed="22.22" length="2.34" shape="4683.76,3768.07 4685.07,3768.66 4685.60,3769.38"/>
    </edge>
    <edge id=":1223955197_13" function="internal">
        <lane id=":1223955197_13_0" index="0" speed="25.00" length="8.38" shape="4686.71,3769.14 4687.50,3769.70 4689.53,3772.19 4691.68,3775.80"/>
    </edge>
    <edge id=":1223955197_14" function="internal">
        <lane id=":1223955197_14_0" index="0" speed="22.22" length="2.34" shape="4685.60,3769.38 4685.34,3770.24 4684.30,3771.23"/>
    </edge>
    <edge id=":1223955199_0" function="internal">
        <lane id=":1223955199_0_0" index="0" disallow="tram rail_urban rail rail_electric ship" speed="12.50" length="5.02" shape="4822.65,3487.55 4822.18,3486.25 4821.41,3485.42 4820.34,3485.07 4818.96,3485.18"/>
    </edge>
    <edge id=":1223955199_1" function="internal">
        <lane id=":1223955199_1_0" index="0" disallow="tram rail_urban rail rail_electric ship" speed="12.50" length="10.68" shape="4822.65,3487.55 4821.99,3483.43 4821.93,3480.39 4822.47,3478.44 4823.62,3477.57"/>
    </edge>
    <edge id=":1223955199_2" function="internal">
        <lane id=":1223955199_2_0" index="0" disallow="tram rail_urban rail rail_electric ship" speed="11.11" length="6.21" shape="4825.02,3483.82 4818.96,3485.18"/>
        <lane id=":1223955199_2_1" index="1" disallow="tram rail_urban rail rail_electric ship" speed="11.11" length="6.21" shape="4824.32,3480.69 4818.26,3482.05"/>
    </edge>
    <edge id=":1223955199_4" function="internal">
        <lane id=":1223955199_4_0" index="0" disallow="tram rail_urban rail rail_electric ship" speed="11.11" length="2.34" shape="4824.32,3480.69 4822.97,3480.17 4822.41,3479.48"/>
    </edge>
    <edge id=":1223955199_8" function="internal">
        <lane id=":1223955199_8_0" index="0" speed="11.11" length="2.34" shape="4822.41,3479.48 4822.63,3478.61 4823.62,3477.57"/>
    </edge>
    <edge id=":1223955199_5" function="internal">
        <lane id=":1223955199_5_0" index="0" disallow="tram rail_urban rail rail_electric ship" speed="11.11" length="6.23" shape="4816.85,3475.81 4822.93,3474.45"/>
        <lane id=":1223955199_5_1" index="1" disallow="tram rail_urban rail rail_electric ship" speed="11.11" length="6.23" shape="4817.55,3478.93 4823.62,3477.57"/>
    </edge>
    <edge id=":1223955199_7" function="internal">
        <lane id=":1223955199_7_0" index="0" disallow="tram rail_urban rail rail_electric ship" speed="11.11" length="2.34" shape="4817.55,3478.93 4818.90,3479.45 4819.46,3480.14"/>
    </edge>
    <edge id=":1223955199_9" function="internal">
        <lane id=":1223955199_9_0" index="0" speed="11.11" length="2.34" shape="4819.46,3480.14 4819.25,3481.01 4818.26,3482.05"/>
    </edge>
    <edge id=":1223955200_0" function="internal">
        <lane id=":1223955200_0_0" index="0" disallow="tram rail_urban rail rail_electric ship" speed="11.11" length="5.70" shape="4873.33,3719.72 4871.66,3719.95 4870.52,3720.15 4869.38,3720.39 4867.74,3720.79"/>
    </edge>
    <edge id=":1223955200_1" function="internal">
        <lane id=":1223955200_1_0" index="0" disallow="tram rail_urban rail rail_electric ship" speed="12.50" length="7.61" shape="4873.33,3719.72 4872.05,3719.50 4870.95,3718.47 4870.04,3716.63 4869.31,3713.98"/>
    </edge>
    <edge id=":1223955200_2" function="internal">
        <lane id=":1223955200_2_0" index="0" disallow="tram rail_urban rail rail_electric ship" speed="11.11" length="4.67" shape="4873.33,3719.72 4872.03,3719.09 4871.53,3718.35 4871.82,3717.50 4872.90,3716.55"/>
    </edge>
    <edge id=":1223955200_3" function="internal">
        <lane id=":1223955200_3_0" index="0" disallow="tram rail_urban rail rail_electric ship" speed="12.50" length="4.95" shape="4866.98,3717.69 4868.23,3717.18 4869.04,3716.40 4869.40,3715.33 4869.31,3713.98"/>
    </edge>
    <edge id=":1223955200_4" function="internal">
        <lane id=":1223955200_4_0" index="0" disallow="tram rail_urban rail rail_electric ship" speed="11.11" length="6.03" shape="4866.98,3717.69 4868.72,3717.26 4869.91,3717.00 4871.12,3716.80 4872.90,3716.55"/>
    </edge>
    <edge id=":1223955200_5" function="internal">
        <lane id=":1223955200_5_0" index="0" disallow="tram rail_urban rail rail_electric ship" speed="11.11" length="4.67" shape="4866.98,3717.69 4868.33,3718.18 4868.91,3718.86 4868.72,3719.73 4867.74,3720.79"/>
    </edge>
    <edge id=":1223955228_0" function="internal">
        <lane id=":1223955228_0_0" index="0" disallow="tram rail_urban rail rail_electric ship" speed="11.11" length="5.87" shape="4799.80,3737.54 4794.15,3739.12"/>
    </edge>
    <edge id=":1223955228_1" function="internal">
        <lane id=":1223955228_1_0" index="0" disallow="tram rail_urban rail rail_electric ship" speed="11.11" length="2.34" shape="4799.80,3737.54 4798.44,3737.05 4797.86,3736.36"/>
    </edge>
    <edge id=":1223955228_6" function="internal">
        <lane id=":1223955228_6_0" index="0" speed="11.11" length="2.34" shape="4797.86,3736.36 4798.06,3735.49 4799.03,3734.43"/>
    </edge>
    <edge id=":1223955228_2" function="internal">
        <lane id=":1223955228_2_0" index="0" disallow="tram rail_urban rail rail_electric ship" speed="12.50" length="5.04" shape="4795.32,3732.09 4795.80,3733.40 4796.57,3734.22 4797.65,3734.57 4799.03,3734.43"/>
    </edge>
    <edge id=":1223955228_3" function="internal">
        <lane id=":1223955228_3_0" index="0" disallow="tram rail_urban rail rail_electric ship" speed="12.50" length="7.66" shape="4795.32,3732.09 4795.74,3734.87 4795.68,3736.97 4795.15,3738.38 4794.15,3739.12"/>
    </edge>
    <edge id=":1223955228_4" function="internal">
        <lane id=":1223955228_4_0" index="0" disallow="tram rail_urban rail rail_electric ship" speed="11.11" length="6.09" shape="4793.17,3736.08 4799.03,3734.43"/>
    </edge>
    <edge id=":1223955228_5" function="internal">
        <lane id=":1223955228_5_0" index="0" disallow="tram rail_urban rail rail_electric ship" speed="11.11" length="2.34" shape="4793.17,3736.08 4794.55,3736.47 4795.18,3737.11"/>
    </edge>
    <edge id=":1223955228_7" function="internal">
        <lane id=":1223955228_7_0" index="0" speed="11.11" length="2.34" shape="4795.18,3737.11 4795.04,3737.99 4794.15,3739.12"/>
    </edge>
    <edge id=":1223955271_0" function="internal">
        <lane id=":1223955271_0_0" index="0" disallow="tram rail_urban rail rail_electric ship" speed="22.22" length="9.74" shape="5033.31,3362.10 5030.91,3360.48 5029.26,3359.33 5027.50,3358.44 5024.77,3357.57"/>
    </edge>
    <edge id=":1223955271_1" function="internal">
        <lane id=":1223955271_1_0" index="0" disallow="tram rail_urban rail rail_electric ship" speed="18.05" length="6.23" shape="5033.31,3362.10 5029.96,3359.35 5029.27,3357.58"/>
    </edge>
    <edge id=":1223955271_2" function="internal">
        <lane id=":1223955271_2_0" index="0" disallow="tram rail_urban rail rail_electric ship" speed="22.22" length="2.34" shape="5033.31,3362.10 5032.72,3360.78 5032.81,3359.89"/>
    </edge>
    <edge id=":1223955271_9" function="internal">
        <lane id=":1223955271_9_0" index="0" speed="18.05" length="7.93" shape="5029.27,3357.58 5028.97,3356.79 5030.35,3354.41 5034.10,3352.23"/>
    </edge>
    <edge id=":1223955271_10" function="internal">
        <lane id=":1223955271_10_0" index="0" speed="22.22" length="2.34" shape="5032.81,3359.89 5033.57,3359.43 5035.01,3359.39"/>
    </edge>
    <edge id=":1223955271_3" function="internal">
        <lane id=":1223955271_3_0" index="0" disallow="tram rail_urban rail rail_electric ship" speed="18.05" length="6.04" shape="5035.35,3355.18 5033.75,3356.11 5033.16,3357.12 5033.58,3358.21 5035.01,3359.39"/>
    </edge>
    <edge id=":1223955271_4" function="internal">
        <lane id=":1223955271_4_0" index="0" disallow="tram rail_urban rail rail_electric ship" speed="18.05" length="11.17" shape="5035.35,3355.18 5032.43,3356.55 5030.15,3357.58 5027.82,3358.01 5024.77,3357.57"/>
    </edge>
    <edge id=":1223955271_5" function="internal">
        <lane id=":1223955271_5_0" index="0" disallow="tram rail_urban rail rail_electric ship" speed="13.89" length="4.67" shape="5035.35,3355.18 5033.93,3354.91 5033.25,3354.33 5033.30,3353.43 5034.10,3352.23"/>
    </edge>
    <edge id=":1223955271_6" function="internal">
        <lane id=":1223955271_6_0" index="0" disallow="tram rail_urban rail rail_electric ship" speed="18.05" length="9.13" shape="5025.59,3354.48 5028.14,3354.84 5029.92,3354.42 5031.66,3353.46 5034.10,3352.23"/>
    </edge>